data_L_24
_audit_creation_date              2019-02-02
_audit_creation_method            'tobacco_3.0'
_symmetry_space_group_name_H-M    'P1'
_symmetry_Int_Tables_number       1
_symmetry_cell_setting            triclinic
loop_
_symmetry_equiv_pos_as_xyz
  x,y,z
_cell_length_a                    20.0000
_cell_length_b                    20.0000
_cell_length_c                    20.0000
_cell_angle_alpha                 90.0000
_cell_angle_beta                  90.0000
_cell_angle_gamma                 90.0000
loop_
_atom_site_label
_atom_site_type_symbol
_atom_site_fract_x
_atom_site_fract_y
_atom_site_fract_z
_atom_site_U_iso_or_equiv
_atom_site_adp_type
_atom_site_occupancy
C1         C    0.0384900000    0.0007700000    0.0000100000   0.00000  Uiso   1.00                
C2         C    0.0781500000   -0.0652500000   -0.0000000000   0.00000  Uiso   1.00                
C3         C    0.1551500000   -0.0639200000    0.0000100000   0.00000  Uiso   1.00                
X4         C    0.1924600000    0.0034300000    0.0000400000   0.00000  Uiso   1.00                
C5         C    0.1528100000    0.0694200000    0.0000100000   0.00000  Uiso   1.00                
C6         C    0.0758300000    0.0681000000    0.0000000000   0.00000  Uiso   1.00                
C7         C   -0.0385000000   -0.0005600000    0.0000500000   0.00000  Uiso   1.00                
C8         C   -0.0782300000    0.0654100000    0.0000800000   0.00000  Uiso   1.00                
C9         C   -0.1552300000    0.0639700000    0.0000300000   0.00000  Uiso   1.00                
X10        C   -0.1924600000   -0.0034300000   -0.0000400000   0.00000  Uiso   1.00                
C11        C   -0.1527300000   -0.0693700000   -0.0000100000   0.00000  Uiso   1.00                
C12        C   -0.0757600000   -0.0679300000    0.0000500000   0.00000  Uiso   1.00                
H13        H    0.1844900000   -0.1127900000   -0.0000000000   0.00000  Uiso   1.00                
H14        H    0.1804400000    0.1192800000   -0.0000100000   0.00000  Uiso   1.00                
H15        H   -0.1846500000    0.1127900000    0.0000500000   0.00000  Uiso   1.00                
H16        H   -0.1803100000   -0.1192600000   -0.0000400000   0.00000  Uiso   1.00                
H17        H    0.0464800000    0.1169600000   -0.0000100000   0.00000  Uiso   1.00                
H18        H   -0.0506600000    0.1153000000    0.0001500000   0.00000  Uiso   1.00                
H19        H    0.0505100000   -0.1150900000   -0.0000200000   0.00000  Uiso   1.00                
H20        H   -0.0463400000   -0.1167500000    0.0001000000   0.00000  Uiso   1.00                
loop_
_geom_bond_atom_site_label_1
_geom_bond_atom_site_label_2
_geom_bond_distance
_geom_bond_site_symmetry_2
_ccdc_geom_bond_type
C1           C2 1.540       .   A
C1           C6 1.540       .   A
C1           C7 1.540       .   S
C2           C3 1.540       .   A
C2          H19 1.140       .   S
C3           X4 1.540       .   A
C3          H13 1.140       .   S
X4           C5 1.540       .   A
C5           C6 1.540       .   A
C5          H14 1.140       .   S
C6          H17 1.140       .   S
C7           C8 1.540       .   A
C7          C12 1.540       .   A
C8           C9 1.540       .   A
C8          H18 1.140       .   S
C9          X10 1.540       .   A
C9          H15 1.140       .   S
X10         C11 1.540       .   A
C11         C12 1.540       .   A
C11         H16 1.140       .   S
C12         H20 1.140       .   S
