data_6c_Cr_1
_audit_creation_date              2019-03-08
_audit_creation_method            'tobacco_3.0'
_symmetry_space_group_name_H-M    'P1'
_symmetry_Int_Tables_number       1
_symmetry_cell_setting            triclinic
loop_
_symmetry_equiv_pos_as_xyz
  x,y,z
_cell_length_a                    20.0000
_cell_length_b                    20.0000
_cell_length_c                    20.0000
_cell_angle_alpha                 90.0000
_cell_angle_beta                  90.0000
_cell_angle_gamma                 90.0000
loop_
_atom_site_label
_atom_site_type_symbol
_atom_site_fract_x
_atom_site_fract_y
_atom_site_fract_z
_atom_site_U_iso_or_equiv
_atom_site_adp_type
_atom_site_occupancy
O1         O    0.0105500000    0.1232500000   -0.0687000000   0.00000  Uiso   1.00                
O2         O   -0.1075000000    0.0555000000   -0.0731500000   0.00000  Uiso   1.00                
X3         C   -0.1172000000    0.0014000000   -0.1057000000   0.00000  Uiso   1.00                
O4         O   -0.1078000000   -0.0536000000   -0.0746500000   0.00000  Uiso   1.00                
O5         O    0.0099000000   -0.1220500000   -0.0720500000   0.00000  Uiso   1.00                
X6         C    0.0634000000   -0.1036000000   -0.1017500000   0.00000  Uiso   1.00                
O7         O    0.1045000000   -0.0678000000   -0.0685000000   0.00000  Uiso   1.00                
O8         O    0.1049000000    0.0684000000   -0.0666000000   0.00000  Uiso   1.00                
X9         C    0.0639500000    0.1053000000   -0.0988500000   0.00000  Uiso   1.00                
O10        O    0.0063000000    0.1213000000    0.0737500000   0.00000  Uiso   1.00                
O11        O   -0.1117500000    0.0535500000    0.0693000000   0.00000  Uiso   1.00                
X12        C   -0.1233500000   -0.0014000000    0.0997000000   0.00000  Uiso   1.00                
O13        O   -0.1120500000   -0.0555500000    0.0678000000   0.00000  Uiso   1.00                
O14        O    0.0056500000   -0.1240000000    0.0703500000   0.00000  Uiso   1.00                
X15        C    0.0572000000   -0.1064000000    0.1037000000   0.00000  Uiso   1.00                
O16        O    0.1002500000   -0.0697500000    0.0739500000   0.00000  Uiso   1.00                
O17        O    0.1006000000    0.0664500000    0.0758000000   0.00000  Uiso   1.00                
X18        C    0.0578000000    0.1025000000    0.1065500000   0.00000  Uiso   1.00                
Cr19      Cr   -0.0484500000    0.0847000000    0.0003000000   0.00000  Uiso   1.00                
Cr20      Cr   -0.0489500000   -0.0851000000   -0.0020000000   0.00000  Uiso   1.00                
Cr21      Cr    0.0983000000   -0.0006500000    0.0035500000   0.00000  Uiso   1.00                
loop_
_geom_bond_atom_site_label_1
_geom_bond_atom_site_label_2
_geom_bond_distance
_geom_bond_site_symmetry_2
_ccdc_geom_bond_type
O1           X9 1.278       .   S
O1         Cr19 1.973       .   S
O2           X3 1.278       .   S
O2         Cr19 1.973       .   S
X3           O4 1.277       .   S
O4         Cr20 1.973       .   S
O5           X6 1.278       .   S
O5         Cr20 1.973       .   S
X6           O7 1.277       .   S
O7         Cr21 1.974       .   S
O8           X9 1.277       .   S
O8         Cr21 1.973       .   S
O10         X18 1.278       .   S
O10        Cr19 1.973       .   S
O11        Cr19 1.974       .   S
O11         X12 1.277       .   S
X12         O13 1.277       .   S
O13        Cr20 1.972       .   S
O14         X15 1.277       .   S
O14        Cr20 1.973       .   S
X15         O16 1.278       .   S
O16        Cr21 1.973       .   S
O17         X18 1.277       .   S
O17        Cr21 1.973       .   S
