data_1B_2CF3_2TrU
_audit_creation_date              2019-02-28
_audit_creation_method            'Materials Studio'
_symmetry_space_group_name_H-M    'P1'
_symmetry_Int_Tables_number       1
_symmetry_cell_setting            triclinic
loop_
_symmetry_equiv_pos_as_xyz
  x,y,z
_cell_length_a                    20.0000
_cell_length_b                    20.0000
_cell_length_c                    20.0000
_cell_angle_alpha                 90.0000
_cell_angle_beta                  90.0000
_cell_angle_gamma                 90.0000
loop_
_atom_site_label
_atom_site_type_symbol
_atom_site_fract_x
_atom_site_fract_y
_atom_site_fract_z
_atom_site_U_iso_or_equiv
_atom_site_adp_type
_atom_site_occupancy
C1     C     0.42708   0.31041   0.40182   0.00000  Uiso   1.00
C2     C     0.46740   0.24481   0.40218   0.00000  Uiso   1.00
C3     C     0.54436   0.24680   0.40087   0.00000  Uiso   1.00
C4     C     0.58105   0.31456   0.40166   0.00000  Uiso   1.00
C5     C     0.54072   0.38016   0.40198   0.00000  Uiso   1.00
C6     C     0.46376   0.37813   0.40090   0.00000  Uiso   1.00
C7     C     0.35012   0.30822   0.40201   0.00000  Uiso   1.00
X8     C     0.27315   0.30605   0.40222   0.00000  Uiso   1.00
C9     C     0.65800   0.31687   0.40178   0.00000  Uiso   1.00
X10    C     0.73494   0.31910   0.40191   0.00000  Uiso   1.00
H11    H     0.44026   0.19470   0.40312   0.00000  Uiso   1.00
C12    C     0.58432   0.18094   0.40250   0.00000  Uiso   1.00
H13    H     0.56783   0.43029   0.40287   0.00000  Uiso   1.00
C14    C     0.42370   0.44391   0.40252   0.00000  Uiso   1.00
F15    F     0.59722   0.15828   0.33272   0.00000  Uiso   1.00
F16    F     0.54457   0.12907   0.43827   0.00000  Uiso   1.00
F17    F     0.64918   0.19059   0.43786   0.00000  Uiso   1.00
F18    F     0.36151   0.43521   0.44261   0.00000  Uiso   1.00
F19    F     0.40585   0.46363   0.33292   0.00000  Uiso   1.00
F20    F     0.46545   0.49737   0.43337   0.00000  Uiso   1.00
loop_
_geom_bond_atom_site_label_1
_geom_bond_atom_site_label_2
_geom_bond_distance
_geom_bond_site_symmetry_2
_ccdc_geom_bond_type
C1     C2      1.540   .     A
C1     C6      1.540   .     A
C1     C7      1.540   .     S
C2     C3      1.540   .     A
C2     H11     1.140   .     S
C3     C4      1.541   .     A
C3     C12     1.541   .     S
C4     C5      1.540   .     A
C4     C9      1.540   .     S
C5     C6      1.540   .     A
C5     H13     1.140   .     S
C6     C14     1.541   .     S
C7     X8      1.540   .     T
C9     X10     1.540   .     T
C12    F15     1.490   .     S
C12    F16     1.490   .     S
C12    F17     1.490   .     S
C14    F18     1.490   .     S
C14    F19     1.490   .     S
C14    F20     1.490   .     S
