data_3D\Atomistic
_audit_creation_date              2018-01-08
_audit_creation_method            'Materials Studio'
_symmetry_space_group_name_H-M    'P1'
_symmetry_Int_Tables_number       1
_symmetry_cell_setting            triclinic
loop_
_symmetry_equiv_pos_as_xyz
  x,y,z
_cell_length_a                    10.0000
_cell_length_b                    10.0000
_cell_length_c                    10.0000
_cell_angle_alpha                 90.0000
_cell_angle_beta                  90.0000
_cell_angle_gamma                 90.0000
loop_
_atom_site_label
_atom_site_type_symbol
_atom_site_fract_x
_atom_site_fract_y
_atom_site_fract_z
_atom_site_U_iso_or_equiv
_atom_site_adp_type
_atom_site_occupancy
V1     V     0.33333   0.33333   0.00000   0.00000  Uiso   1.00
V2     V     0.83333   0.83333   0.50000   0.00000  Uiso   1.00
V3     V     0.66667   0.66667   0.00000   0.00000  Uiso   1.00
V4     V     0.16667   0.16667   0.50000   0.00000  Uiso   1.00
V5     V     0.66667   0.33333   0.00000   0.00000  Uiso   1.00
V6     V     0.16667   0.83333   0.50000   0.00000  Uiso   1.00
V7     V     0.33333   0.66667   0.00000   0.00000  Uiso   1.00
V8     V     0.83333   0.16667   0.50000   0.00000  Uiso   1.00
V9     V     0.00000   0.33333   0.33333   0.00000  Uiso   1.00
V10    V     0.50000   0.83333   0.83333   0.00000  Uiso   1.00
V11    V     0.00000   0.66667   0.66667   0.00000  Uiso   1.00
V12    V     0.50000   0.16667   0.16667   0.00000  Uiso   1.00
V13    V     0.00000   0.66667   0.33333   0.00000  Uiso   1.00
V14    V     0.50000   0.16667   0.83333   0.00000  Uiso   1.00
V15    V     0.00000   0.33333   0.66667   0.00000  Uiso   1.00
V16    V     0.50000   0.83333   0.16667   0.00000  Uiso   1.00
V17    V     0.33333   0.00000   0.33333   0.00000  Uiso   1.00
V18    V     0.83333   0.50000   0.83333   0.00000  Uiso   1.00
V19    V     0.66667   0.00000   0.66667   0.00000  Uiso   1.00
V20    V     0.16667   0.50000   0.16667   0.00000  Uiso   1.00
V21    V     0.33333   0.00000   0.66667   0.00000  Uiso   1.00
V22    V     0.83333   0.50000   0.16667   0.00000  Uiso   1.00
V23    V     0.66667   0.00000   0.33333   0.00000  Uiso   1.00
V24    V     0.16667   0.50000   0.83333   0.00000  Uiso   1.00
loop_
_geom_bond_atom_site_label_1
_geom_bond_atom_site_label_2
_geom_bond_distance
_geom_bond_site_symmetry_2
_ccdc_geom_bond_type
V1     V12     2.887   .     S
V1     V24     2.887   1_554 S
V1     V14     2.887   1_554 S
V1     V20     2.887   .     S
V2     V11     2.887   1_655 S
V2     V23     2.887   1_565 S
V2     V13     2.887   1_655 S
V2     V19     2.887   1_565 S
V3     V16     2.887   .     S
V3     V18     2.887   1_554 S
V3     V10     2.887   1_554 S
V3     V22     2.887   .     S
V4     V15     2.887   .     S
V4     V17     2.887   .     S
V4     V9      2.887   .     S
V4     V21     2.887   .     S
V5     V14     2.887   1_554 S
V5     V22     2.887   .     S
V5     V12     2.887   .     S
V5     V18     2.887   1_554 S
V6     V13     2.887   .     S
V6     V21     2.887   1_565 S
V6     V11     2.887   .     S
V6     V17     2.887   1_565 S
V7     V10     2.887   1_554 S
V7     V20     2.887   .     S
V7     V16     2.887   .     S
V7     V24     2.887   1_554 S
V8     V9      2.887   1_655 S
V8     V19     2.887   .     S
V8     V15     2.887   1_655 S
V8     V23     2.887   .     S
V9     V20     2.887   .     S
V9     V8      2.887   1_455 S
V9     V22     2.887   1_455 S
V10    V19     2.887   1_565 S
V10    V7      2.887   1_556 S
V10    V21     2.887   1_565 S
V10    V3      2.887   1_556 S
V11    V24     2.887   .     S
V11    V2      2.887   1_455 S
V11    V18     2.887   1_455 S
V12    V23     2.887   .     S
V12    V17     2.887   .     S
V13    V22     2.887   1_455 S
V13    V20     2.887   .     S
V13    V2      2.887   1_455 S
V14    V21     2.887   .     S
V14    V5      2.887   1_556 S
V14    V19     2.887   .     S
V14    V1      2.887   1_556 S
V15    V18     2.887   1_455 S
V15    V24     2.887   .     S
V15    V8      2.887   1_455 S
V16    V17     2.887   1_565 S
V16    V23     2.887   1_565 S
V17    V16     2.887   1_545 S
V17    V6      2.887   1_545 S
V18    V3      2.887   1_556 S
V18    V15     2.887   1_655 S
V18    V5      2.887   1_556 S
V18    V11     2.887   1_655 S
V19    V10     2.887   1_545 S
V19    V2      2.887   1_545 S
V21    V6      2.887   1_545 S
V21    V10     2.887   1_545 S
V22    V13     2.887   1_655 S
V22    V9      2.887   1_655 S
V23    V2      2.887   1_545 S
V23    V16     2.887   1_545 S
V24    V1      2.887   1_556 S
V24    V7      2.887   1_556 S
