data_hwx_v1-6c_Zn_1_Ch_v2-3c_triazine_Ch_1B_4H_Ch
_audit_creation_date              2019-09-04
_audit_creation_method            'tobacco_3.0'
_symmetry_space_group_name_H-M    'P1'
_symmetry_Int_Tables_number       1
_symmetry_cell_setting            triclinic
loop_
_symmetry_equiv_pos_as_xyz
  x,y,z
_cell_length_a                    34.666842756590135
_cell_length_b                    33.98787793887085
_cell_length_c                    15.983896109072584
_cell_angle_alpha                 89.99589275988309
_cell_angle_beta                  83.23123852116652
_cell_angle_gamma                 89.98944511100777
loop_
_atom_site_label
_atom_site_type_symbol
_atom_site_fract_x
_atom_site_fract_y
_atom_site_fract_z
Zn1       Zn    0.2978439248    0.7802397039   -0.0097333226
Zn2       Zn    0.2579605468    0.7000708024    0.0545071253
Zn3       Zn    0.2091842421    0.7792314870    0.0667499905
Zn4       Zn    0.2350112863    0.7404580067   -0.1115237932
O5         O    0.2500000000    0.7500000000    0.0000000000
O6         O    0.3392292111    0.7531473591    0.0362268320
O7         O    0.2240179047    0.6932522459    0.1575414522
O8         O    0.2268128016    0.8291030147    0.1042982505
O9         O    0.3099178452    0.6942290797    0.0834388630
O10        O    0.2919711842    0.8298439804    0.0480886090
O11        O    0.1881708880    0.7514295596    0.1665390627
O12        O    0.1849169661    0.7620639444   -0.1253419439
O13        O    0.2490410211    0.6556856818   -0.0151831386
O14        O    0.1659359775    0.7905596167    0.0056762489
O15        O    0.2321749931    0.6853673232   -0.1372037209
O16        O    0.2708169067    0.7630407782   -0.1994445331
O17        O    0.3169943006    0.7922774162   -0.1246359818
C18        C    0.3391617289    0.7185410641    0.0715374511
C19        C    0.1975055073    0.7169301830    0.1937388489
C20        C    0.2612292706    0.8450202386    0.0910985184
C21        C    0.1608382711    0.7814589359   -0.0715374511
C22        C    0.2387707294    0.6549797614   -0.0910985184
C23        C    0.3024944927    0.7830698170   -0.1937388489
Zn24      Zn    0.7966609133    0.2012326697    0.6952243970
Zn25      Zn    0.8454375496    0.1220721947    0.6829815431
Zn26      Zn    0.8196103069    0.1608455874    0.8612553286
Zn27      Zn    0.7567778599    0.1210636040    0.7594647725
O28        O    0.8046216574    0.1513035140    0.7497315103
O29        O    0.8306035466    0.2080513592    0.5921901011
O30        O    0.8886858464    0.1107442606    0.7440553255
O31        O    0.8224463638    0.2159362867    0.8869352856
O32        O    0.8664508069    0.1498741996    0.5831924990
O33        O    0.8055802379    0.2456178385    0.7649146937
O34        O    0.8697047120    0.1392398686    0.8750735196
O35        O    0.7376275114    0.1090258244    0.8743674135
O36        O    0.8278092078    0.0722005855    0.6454332410
O37        O    0.7838047647    0.1382626727    0.9491760277
O38        O    0.7626508201    0.0714593451    0.7016428209
O39        O    0.7153924719    0.1481557633    0.7135045870
O40        O    0.7447035993    0.2070741633    0.6662926092
C41        C    0.8571160493    0.1843735320    0.5559927179
C42        C    0.8937834982    0.1198449740    0.8212690388
C43        C    0.8158505102    0.2463238136    0.8408300880
C44        C    0.7521272655    0.1182334959    0.9434703027
C45        C    0.7933928046    0.0562832143    0.6586329327
C46        C    0.7154598166    0.1827620539    0.6781939818
Zn47      Zn    0.7908325907    0.6805301653    0.4332540363
Zn48      Zn    0.7420705093    0.6013779838    0.4455066515
Zn49      Zn    0.7650111663    0.6417568814    0.6115328699
Zn50      Zn    0.7021723035    0.6815524815    0.5097340842
O51        O    0.7500216425    0.6513043780    0.5000069105
O52        O    0.8118516804    0.6527269427    0.3334695873
O53        O    0.7509974452    0.5569895043    0.5152038469
O54        O    0.8151013967    0.6633534236    0.6253497512
O55        O    0.7760151168    0.5945558781    0.3424743633
O56        O    0.8340782552    0.6918489516    0.4943278472
O57        O    0.7678571503    0.5866650408    0.6372209749
O58        O    0.6830189022    0.6935907735    0.6246345145
O59        O    0.6901145906    0.5955463723    0.4165737889
O60        O    0.7292008705    0.6643439178    0.6994491768
O61        O    0.6607923273    0.6544687645    0.4637762546
O62        O    0.7080365737    0.7311571473    0.4519050310
O63        O    0.7731954005    0.7304058197    0.3956977892
C64        C    0.8025234912    0.6182299335    0.3062744251
C65        C    0.7612672481    0.5562798257    0.5911198607
C66        C    0.8391769811    0.6827454143    0.5715432153
C67        C    0.6975197937    0.6843788225    0.6937393959
C68        C    0.6608663038    0.6198633417    0.4284706057
C69        C    0.7387760368    0.7463289303    0.4088939602
Zn70      Zn    0.3125530096    0.2999238214    0.3042207565
Zn71      Zn    0.2896122609    0.2595449189    0.1381946237
Zn72      Zn    0.3524511039    0.2197492630    0.2399933781
Zn73      Zn    0.2637908312    0.2207717012    0.3164735225
O74        O    0.3046018014    0.2499974261    0.2497205702
O75        O    0.3036261104    0.3443122980    0.2345235226
O76        O    0.3254225096    0.2369578220    0.0502783079
O77        O    0.3938311272    0.2468329391    0.2859511243
O78        O    0.2867663378    0.3146367579    0.1125064574
O79        O    0.3645089459    0.3057553759    0.3331535501
O80        O    0.3716044635    0.2077109254    0.1250929473
O81        O    0.2814279707    0.1708960330    0.3540298068
O82        O    0.2395219974    0.2379484344    0.1243778272
O83        O    0.3465867869    0.1701446157    0.2978224940
O84        O    0.2205451351    0.2094529551    0.2553997792
O85        O    0.2427717989    0.2485749688    0.4162579563
O86        O    0.2786084337    0.3067459883    0.4072530693
C87        C    0.2933562890    0.3450219741    0.1586075245
C88        C    0.3571035652    0.2169228802    0.0559880759
C89        C    0.3937572018    0.2814383689    0.3212567294
C90        C    0.3158473138    0.1549728782    0.3408336159
C91        C    0.2154464010    0.2185564833    0.1781844109
C92        C    0.2521000376    0.2830719720    0.4434530645
C93        C    0.2054919445    0.4873009153    0.8420771117
N94        N    0.2074165673    0.4696766551    0.7529292457
C95        C    0.2122984172    0.4249723144    0.7400082592
N96        N    0.2152556444    0.3978922338    0.8162351388
C97        C    0.2133310216    0.4155164940    0.9053830048
N98        N    0.2084491716    0.4602208347    0.9183039913
C99        C    0.8491295419    0.4140026963    0.9076545390
N100       N    0.8461724065    0.4410827300    0.8314275452
C101       C    0.8412906969    0.4857870951    0.8443483458
N102       N    0.8393661227    0.5034114265    0.9334961403
C103       C    0.8423232581    0.4763313928    1.0097231341
N104       N    0.8472049677    0.4316270277    0.9968023335
C105       C   -0.0049494580    0.7406491573    0.6145267364
N106       N    0.0194280571    0.7454612736    0.5281666363
C107       C    0.0632423685    0.7541102094    0.5232249515
N108       N    0.0826791648    0.7579470289    0.6046433667
C109       C    0.0583016497    0.7531349126    0.6910034668
N110       N    0.0144873383    0.7444859768    0.6959451516
C111       C    0.0595717720    0.1606546838    0.1352046452
N112       N    0.0351943082    0.1558426782    0.2215648345
C113       C   -0.0086200422    0.1471939154    0.2265067133
N114       N   -0.0280569287    0.1433571583    0.1450884028
C115       C   -0.0036794649    0.1481691640    0.0587282135
N116       N    0.0401348855    0.1568179267    0.0537863347
C117       C    0.3490991745    0.9872765880    0.4076145007
N118       N    0.3461423441    0.9602004185    0.3313911701
C119       C    0.3412605859    0.9154973788    0.3443181596
N120       N    0.3393356583    0.8978705086    0.4334684797
C121       C    0.3422924888    0.9249466781    0.5096918102
N122       N    0.3471742469    0.9696497178    0.4967648207
C123       C    0.7055248674    0.9140272084    0.3421150637
N124       N    0.7084815844    0.9411033172    0.4183385401
C125       C    0.7133631695    0.9858063874    0.4054117878
N126       N    0.7152880375    1.0034333489    0.3162615590
C127       C    0.7123313205    0.9763572401    0.2400380826
N128       N    0.7074497355    0.9316541699    0.2529648349
C129       C    0.5595610101    0.2406426640    0.6351988261
N130       N    0.5351818324    0.2454546257    0.7215579533
C131       C    0.4913644443    0.2541033012    0.7264979122
N132       N    0.4719262339    0.2579400149    0.6450787439
C133       C    0.4963054116    0.2531280531    0.5587196168
N134       N    0.5401227997    0.2444793777    0.5537796578
C135       C    0.4950619402    0.6606586156    0.1145320280
N136       N    0.5145002181    0.6568218359    0.1959510955
C137       C    0.5583175897    0.6481730447    0.1910109523
N138       N    0.5826966836    0.6433610334    0.1046517417
C139       C    0.5632584058    0.6471978131    0.0232326743
N140       N    0.5194410341    0.6558466043    0.0281728174
C371       C    0.3320506562    0.0855724312    0.2830165725
C372       C    0.3238470627    0.1146284228    0.3568997938
C373       C    0.3242696507    0.1001807247    0.4481072796
C374       C    0.3328958321    0.0566770350    0.4654315441
C375       C    0.3410994256    0.0276210434    0.3915483228
C376       C    0.3406768377    0.0420687415    0.3003408370
H377       H    0.3317378314    0.0962674805    0.2154993427
H378       H    0.3181973933    0.1216874091    0.5027982638
H379       H    0.3332086570    0.0459819857    0.5329487738
H380       H    0.3467490951    0.0205620571    0.2456498527
C361       C    0.1013942808    0.2110416084    0.1999276923
C362       C    0.0965950733    0.1744075042    0.1454131879
C363       C    0.1327098789    0.1529714793    0.1021800237
C364       C    0.1736238922    0.1681695588    0.1134613638
C365       C    0.1784230998    0.2048036630    0.1679758682
C366       C    0.1423082941    0.2262396878    0.2112090324
H367       H    0.0746599441    0.2269098346    0.2319314633
H368       H    0.1291586655    0.1258543672    0.0618272131
H369       H    0.2003582289    0.1523013326    0.0814575928
H370       H    0.1458595075    0.2533568000    0.2515618431
C351       C    0.4013588711    0.2589316275    0.4620913398
C352       C    0.4167350535    0.2750949112    0.3744647476
C353       C    0.4604074892    0.2834464947    0.3523615810
C354       C    0.4887037423    0.2756347946    0.4178850064
C355       C    0.4733275599    0.2594715109    0.5055115986
C356       C    0.4296551242    0.2511199273    0.5276147653
H357       H    0.3690299252    0.2527492864    0.4784534242
H358       H    0.4717902669    0.2954107642    0.2874999894
H359       H    0.5210326882    0.2818171357    0.4015229220
H360       H    0.4182723465    0.2391556579    0.5924763568
C341       C    0.4150576303    0.1927452901   -0.0814790067
C342       C    0.3934863988    0.2269982579   -0.0332991824
C343       C    0.4026627732    0.2697660586   -0.0605771815
C344       C    0.4334103792    0.2782808913   -0.1360350051
C345       C    0.4549816107    0.2440279235   -0.1842148295
C346       C    0.4458052363    0.2012601229   -0.1569368303
H347       H    0.4082647298    0.1610860091   -0.0612862021
H348       H    0.3866961147    0.2951213371   -0.0249155100
H349       H    0.4402032798    0.3099401723   -0.1562278097
H350       H    0.4617718948    0.1759048443   -0.1925985018
C331       C    0.2402639297    0.3653617775    0.4980186399
C332       C    0.2412277063    0.3218338998    0.5244609807
C333       C    0.2331630040    0.3104942655    0.6181730026
C334       C    0.2241345251    0.3426825089    0.6854426838
C335       C    0.2231707485    0.3862103866    0.6590003430
C336       C    0.2312354508    0.3975500209    0.5652883211
H337       H    0.2462339041    0.3737560523    0.4286474029
H338       H    0.2338761328    0.2782747262    0.6377484950
H339       H    0.2181645507    0.3342882341    0.7548139208
H340       H    0.2305223220    0.4297695602    0.5457128287
C321       C    0.2218168036    0.3569817716   -0.0070483098
C322       C    0.2317133364    0.3993234527   -0.0364497063
C323       C    0.2632401881    0.4226109152    0.0025938681
C324       C    0.2848705070    0.4035566965    0.0710388391
C325       C    0.2749739742    0.3612150154    0.1004402356
C326       C    0.2434471224    0.3379275529    0.0613966612
H327       H    0.1984787445    0.3397430007   -0.0359506960
H328       H    0.2705665643    0.4539528141   -0.0191677055
H329       H    0.3082085661    0.4207954674    0.0999412254
H330       H    0.2361207463    0.3065856540    0.0831582348
C311       C    0.7137691428    0.7983190563    0.3115674433
C312       C    0.7307763768    0.7866742543    0.3928281052
C313       C    0.7391576862    0.8185332674    0.4567651738
C314       C    0.7305317614    0.8620370824    0.4394415806
C315       C    0.7135245274    0.8736818844    0.3581809187
C316       C    0.7051432180    0.8418228713    0.2942438501
H317       H    0.7075647969    0.7747351115    0.2642374055
H318       H    0.7517466456    0.8099148347    0.5169160504
H319       H    0.7367361073    0.8856210272    0.4867716184
H320       H    0.6925542586    0.8504413041    0.2340929735
C301       C    0.6445912672    0.7082058562    0.8403286172
C302       C    0.6611365970    0.6743032230    0.7830280511
C303       C    0.6469344296    0.6318856846    0.8011854690
C304       C    0.6161869323    0.6233707795    0.8766434530
C305       C    0.5996416025    0.6572734127    0.9339440191
C306       C    0.6138437700    0.6996909510    0.9157866012
H307       H    0.6551045600    0.7396058521    0.8268874117
H308       H    0.6591807744    0.6067897336    0.7587723683
H309       H    0.6056736395    0.5919707835    0.8900846585
H310       H    0.6015974251    0.7247869020    0.9581997019
C291       C    0.5940492569    0.6301915245    0.4036914934
C292       C    0.6378884916    0.6262066201    0.3752636653
C293       C    0.6534311815    0.6300332888    0.2813129509
C294       C    0.6251346367    0.6378448619    0.2157900646
C295       C    0.5812954019    0.6418297664    0.2442178927
C296       C    0.5657527120    0.6380030977    0.3381686071
H297       H    0.5825436293    0.6273587957    0.4732394248
H298       H    0.6858813192    0.6270837978    0.2602678004
H299       H    0.6366402642    0.6406775907    0.1462421332
H300       H    0.5333025744    0.6409525887    0.3592137576
C281       C    0.9123249460    0.6743627233    0.5406580283
C282       C    0.8762000363    0.6964986991    0.5817526521
C283       C    0.8809888519    0.7338332616    0.6341295996
C284       C    0.9219025772    0.7490318483    0.6454119233
C285       C    0.9580274868    0.7268958725    0.6043172995
C286       C    0.9532386712    0.6895613100    0.5519403520
H287       H    0.9087799786    0.6467254498    0.5018854828
H288       H    0.8542494737    0.7502194138    0.6645493516
H289       H    0.9254475445    0.7766691219    0.6841844689
H290       H    0.9799780494    0.6731751579    0.5215206000
C271       C    0.8424420099    0.5876927272    0.1466866196
C272       C    0.8133951921    0.5794689404    0.2252685001
C273       C    0.7933765568    0.5390568764    0.2365806601
C274       C    0.8024047394    0.5068685992    0.1693109396
C275       C    0.8314515572    0.5150923859    0.0907290591
C276       C    0.8514701925    0.5555044499    0.0794168991
H277       H    0.8572609996    0.6176081512    0.1383126830
H278       H    0.7718755719    0.5329683797    0.2947470467
H279       H    0.7875857496    0.4769531752    0.1776848762
H280       H    0.8729711774    0.5615929466    0.0212505125
C261       C    0.8135870475    0.5115932177    0.6241609336
C262       C    0.7796490964    0.5400872385    0.6492879058
C263       C    0.7673410214    0.5495274812    0.7428610754
C264       C    0.7889708976    0.5304737032    0.8113072729
C265       C    0.8229088487    0.5019796823    0.7861803007
C266       C    0.8352169237    0.4925394396    0.6926071311
H267       H    0.8226982198    0.5046049860    0.5548924834
H268       H    0.7422198811    0.5706189529    0.7614629323
H269       H    0.7798597252    0.5374619348    0.8805757231
H270       H    0.8603380640    0.4714479679    0.6740052743
C251       C    0.9221533802    0.1683041306    0.9066911196
C252       C    0.9167592441    0.1261916504    0.8744771461
C253       C    0.9396578807    0.0918945888    0.9077846526
C254       C    0.9679506532    0.0997100074    0.9733061326
C255       C    0.9733447892    0.1418224876    1.0055201062
C256       C    0.9504461527    0.1761195492    0.9722125997
H257       H    0.9052024415    0.1936928645    0.8820349135
H258       H    0.9356658850    0.0607219952    0.8839410379
H259       H    0.9849015919    0.0743212735    0.9979623387
H260       H    0.9544381484    0.2072921428    0.9960562143
C241       C    0.9345836656    0.1610025270    0.4817959960
C242       C    0.8934989303    0.1742985865    0.4667084848
C243       C    0.8831632683    0.1790797832    0.3761622044
C244       C    0.9139123415    0.1705649205    0.3007034352
C245       C    0.9549970768    0.1572688610    0.3157909464
C246       C    0.9653327388    0.1524876642    0.4063372268
H247       H    0.9422347401    0.1574631995    0.5488237620
H248       H    0.8527521661    0.1889216305    0.3649916166
H249       H    0.9062612670    0.1741042480    0.2336756692
H250       H    0.9957438410    0.1426458169    0.4175078146
C231       C    0.6441421486    0.1880766782    0.7359689881
C232       C    0.6784314924    0.1965095741    0.6679819821
C233       C    0.6717997571    0.2201352548    0.5887093980
C234       C    0.6308786780    0.2353280396    0.5774238199
C235       C    0.5965893343    0.2268951437    0.6454108258
C236       C    0.6032210696    0.2032694630    0.7246834099
H237       H    0.6490513553    0.1705875380    0.7946512906
H238       H    0.6971803976    0.2263780020    0.5383831491
H239       H    0.6259694714    0.2528171799    0.5187415173
H240       H    0.5778404291    0.1970267158    0.7750096588
C221       C    0.7306493452    0.0446507034    0.6039180665
C222       C    0.7750077178    0.0400926796    0.6004608227
C223       C    0.7977363597    0.0164867770    0.5285651164
C224       C    0.7761066289   -0.0025611017    0.4601266539
C225       C    0.7317482563    0.0019969221    0.4635838977
C226       C    0.7090196144    0.0256028247    0.5354796041
H227       H    0.7138242467    0.0621252027    0.6571395634
H228       H    0.8305709887    0.0131121970    0.5260038015
H229       H    0.7929317274   -0.0200356010    0.4069051570
H230       H    0.6761849854    0.0289774048    0.5380409189
C211       C    0.7642277934    0.0778476227    1.1012081205
C212       C    0.7412572709    0.0794809512    1.0244757965
C213       C    0.7092587705    0.0489286964    1.0150218686
C214       C    0.7002307926    0.0167431133    1.0823002648
C215       C    0.7232013151    0.0151097849    1.1590325888
C216       C    0.7551998155    0.0456620396    1.1684865167
H217       H    0.7879149950    0.1004642269    1.1082064827
H218       H    0.6922550587    0.0501367134    0.9582245759
H219       H    0.6765435910   -0.0058734909    1.0753019026
H220       H    0.7722035273    0.0444540226    1.2252838094
C201       C    0.8524275715    0.2974363013    0.9201129703
C202       C    0.8238572772    0.2866665065    0.8569077136
C203       C    0.8039197318    0.3193934601    0.8110370568
C204       C    0.8125524806    0.3628902087    0.8283716567
C205       C    0.8411227748    0.3736600035    0.8915769134
C206       C    0.8610603203    0.3409330498    0.9374475702
H207       H    0.8671865337    0.2732098551    0.9540691708
H208       H    0.7827714705    0.3114227320    0.7642512987
H209       H    0.7977935183    0.3871166549    0.7944154562
H210       H    0.8822085815    0.3489037780    0.9842333283
C191       C    0.3544960667    0.8394499746   -0.2906897454
C192       C    0.3133651008    0.8218227169   -0.2747451659
C193       C    0.2812625248    0.8363809899   -0.3260789399
C194       C    0.2902909147    0.8685665205   -0.3933572932
C195       C    0.3314218806    0.8861937782   -0.4093018727
C196       C    0.3635244567    0.8716355052   -0.3579680988
H197       H    0.3782603113    0.8286730712   -0.2526894192
H198       H    0.2508165140    0.8233338172   -0.3142784434
H199       H    0.2665266701    0.8793434239   -0.4313576194
H200       H    0.3939704674    0.8846826779   -0.3697685953
C181       C    0.2953023335    0.9034842236    0.1374916166
C182       C    0.2796148165    0.8612109096    0.1492705143
C183       C    0.2855574113    0.8379854947    0.2294872367
C184       C    0.3071875230    0.8570333937    0.2979250614
C185       C    0.3228750400    0.8993067077    0.2861461636
C186       C    0.3169324452    0.9225321227    0.2059294412
H187       H    0.2909032699    0.9206770632    0.0781104065
H188       H    0.2739457550    0.8066942029    0.2382084736
H189       H    0.3115865866    0.8398405541    0.3573062715
H190       H    0.3285441015    0.9538234145    0.1972082044
C171       C    0.4476833163    0.7179651163    0.1213826805
C172       C    0.4580328333    0.6744067392    0.1043200420
C173       C    0.4274613516    0.6460414628    0.0759721011
C174       C    0.3865403528    0.6612345634    0.0646867987
C175       C    0.3761908358    0.7047929405    0.0817494372
C176       C    0.4067623175    0.7331582169    0.1100973781
H177       H    0.4703141534    0.7389627884    0.1423675198
H178       H    0.4351210598    0.6137988092    0.0633414996
H179       H    0.3639095157    0.6402368913    0.0437019593
H180       H    0.3991026093    0.7654008705    0.1227279796
C161       C    0.1176190435    0.7252954624    0.2719932884
C162       C    0.1611228911    0.7270052241    0.2830229707
C163       C    0.1738777855    0.7372299579    0.3695115825
C164       C    0.1431288323    0.7457449301    0.4449705120
C165       C    0.0996249848    0.7440351684    0.4339408297
C166       C    0.0868700903    0.7338104345    0.3474522179
H167       H    0.1081771086    0.7177265036    0.2079692511
H168       H    0.2060795825    0.7384958410    0.3776784512
H169       H    0.1525707672    0.7533138889    0.5089945493
H170       H    0.0546682933    0.7325445514    0.3392853492
C151       C    0.0950807523    0.7650436506   -0.0955358202
C152       C    0.1378626813    0.7751123143   -0.1247453918
C153       C    0.1523518893    0.7773655879   -0.2194765638
C154       C    0.1240591685    0.7695501979   -0.2849981642
C155       C    0.0812772395    0.7594815342   -0.2557885925
C156       C    0.0667880314    0.7572282606   -0.1610574205
H157       H    0.0843549749    0.7633756429   -0.0254101474
H158       H    0.1840193796    0.7848184482   -0.2411003829
H159       H    0.1347849459    0.7712182056   -0.3551238369
H160       H    0.0351205411    0.7497754003   -0.1394336014
C141       C    0.2627612897    0.5882033806   -0.1524437973
C142       C    0.2307640266    0.6146371016   -0.1071761148
C143       C    0.1901340738    0.5975740594   -0.0792430209
C144       C    0.1815013842    0.5540772961   -0.0965776094
C145       C    0.2134986474    0.5276435751   -0.1418452918
C146       C    0.2541286001    0.5447066173   -0.1697783858
H147       H    0.2928380080    0.6008344638   -0.1731215422
H148       H    0.1664485275    0.6171396657   -0.0457351592
H149       H    0.1514246660    0.5414462129   -0.0758998645
H150       H    0.2778141464    0.5251410110   -0.2032862475
loop_
_geom_bond_atom_site_label_1
_geom_bond_atom_site_label_2
_geom_bond_distance
_geom_bond_site_symmetry_2
_ccdc_geom_bond_type
Zn26        O31 1.922       .   S
Zn26        O37 1.922       .   S
Zn26        O34 1.922       .   S
Zn26        O28 1.942       .   S
Zn27        O39 1.922       .   S
Zn27        O38 1.922       .   S
Zn27        O35 1.922       .   S
Zn27        O28 1.942       .   S
Zn24        O40 1.922       .   S
Zn24        O33 1.922       .   S
Zn24        O28 1.942       .   S
Zn24        O29 1.922       .   S
Zn25        O30 1.922       .   S
Zn25        O32 1.922       .   S
Zn25        O28 1.942       .   S
Zn25        O36 1.922       .   S
C171       C176 1.540       .   A
C175       C176 1.540       .   A
C176       H180 1.140       .   S
O29         C41 1.304       .   A
C242       C243 1.540       .   A
C243       H248 1.140       .   S
C243       C244 1.540       .   A
C41        C242 1.822       .   S
C241       C242 1.540       .   A
C241       C246 1.540       .   A
C241       H247 1.140       .   S
C246       H250 1.140       .   S
C245       C246 1.540       .   A
C245       C113 1.822   1_655   S
C244       C245 1.540       .   A
C244       H249 1.140       .   S
C144       H149 1.140       .   S
C344       H349 1.140       .   S
C343       H348 1.140       .   S
C274       H279 1.140       .   S
C336       H340 1.140       .   S
C341       H347 1.140       .   S
Zn48        O59 1.922       .   S
O59         C68 1.304       .   A
O58         C67 1.304       .   A
Zn50        O58 1.922       .   S
Zn48        O53 1.922       .   S
O53         C65 1.304       .   A
O52         C64 1.304       .   A
Zn47        O52 1.922       .   S
Zn48        O51 1.942       .   S
Zn49        O51 1.942       .   S
Zn50        O51 1.942       .   S
Zn47        O51 1.942       .   S
Zn49        O57 1.922       .   S
O57         C65 1.304       .   A
O56         C66 1.304       .   A
Zn47        O56 1.922       .   S
Zn48        O55 1.922       .   S
O55         C64 1.304       .   A
O54         C66 1.304       .   A
Zn49        O54 1.922       .   S
C93         N98 1.540       .   A
C97         N98 1.540       .   A
N96         C97 1.540       .   A
C95         N96 1.540       .   A
C93         N94 1.540       .   A
N94         C95 1.540       .   A
N114       C115 1.540       .   A
C113       N114 1.540       .   A
C115       N116 1.540       .   A
C111       N116 1.540       .   A
C105       N110 1.540       .   A
C109       N110 1.540       .   A
C203       H208 1.140       .   S
C204       H209 1.140       .   S
C201       H207 1.140       .   S
C117       N118 1.540       .   A
N118       C119 1.540       .   A
C196       H200 1.140       .   S
O35         C44 1.304       .   A
C44        C212 1.854       .   S
O37         C44 1.304       .   A
O38         C45 1.304       .   A
C45        C222 1.309       .   S
O36         C45 1.304       .   A
O39         C46 1.304       .   A
O40         C46 1.304       .   A
C46        C232 1.394       .   S
O32         C41 1.304       .   A
O30         C42 1.304       .   A
C42        C252 1.251       .   S
O34         C42 1.304       .   A
O31         C43 1.304       .   A
O33         C43 1.304       .   A
C43        C202 1.428       .   S
C286       H290 1.140       .   S
C291       H297 1.140       .   S
C213       H218 1.140       .   S
C294       H299 1.140       .   S
C293       H298 1.140       .   S
C342        C88 1.822       .   S
C342       C343 1.540       .   A
C341       C342 1.540       .   A
C343       C344 1.540       .   A
C341       C346 1.540       .   A
C346       H350 1.140       .   S
C345       C346 1.540       .   A
C344       C345 1.540       .   A
C345       C131 1.822   1_554   S
C285       C286 1.540       .   A
C281       C286 1.540       .   A
C105       C285 1.394   1_455   S
C284       C285 1.540       .   A
C283       C284 1.540       .   A
C284       H289 1.140       .   S
C282       C283 1.540       .   A
C283       H288 1.140       .   S
C66        C282 1.394       .   S
C281       C282 1.540       .   A
C281       H287 1.140       .   S
C184       H189 1.140       .   S
C183       H188 1.140       .   S
C119       C185 1.309       .   S
C119       N120 1.540       .   A
C117       C375 1.428   1_565   S
C117       N122 1.540       .   A
C115       C255 1.251   1_454   S
N112       C113 1.540       .   A
C111       C362 1.394       .   S
C111       N112 1.540       .   A
Zn73        O84 1.922       .   S
O84         C91 1.304       .   A
O85         C92 1.304       .   A
Zn73        O85 1.922       .   S
Zn70        O86 1.922       .   S
O86         C92 1.304       .   A
O80         C88 1.304       .   A
Zn72        O80 1.922       .   S
Zn73        O81 1.922       .   S
O81         C90 1.304       .   A
Zn71        O82 1.922       .   S
O82         C91 1.304       .   A
Zn72        O83 1.922       .   S
O83         C90 1.304       .   A
C376       H380 1.140       .   S
O17         C23 1.304       .   A
Zn1         O17 1.922       .   S
O16         C23 1.304       .   A
Zn4         O16 1.922       .   S
O15         C22 1.304       .   A
Zn4         O15 1.922       .   S
Zn3         O14 1.922       .   S
O14         C21 1.304       .   A
O13         C22 1.304       .   A
Zn2         O13 1.922       .   S
O12         C21 1.304       .   A
Zn4         O12 1.922       .   S
Zn3         O11 1.922       .   S
O11         C19 1.304       .   A
Zn1         O10 1.922       .   S
O10         C20 1.304       .   A
C232       C233 1.540       .   A
C231       C232 1.540       .   A
C233       H238 1.140       .   S
C233       C234 1.540       .   A
C231       H237 1.140       .   S
C231       C236 1.540       .   A
C236       H240 1.140       .   S
C235       C236 1.540       .   A
C234       H239 1.140       .   S
C234       C235 1.540       .   A
C235       C129 1.394       .   S
C326       H330 1.140       .   S
C331       H337 1.140       .   S
C333       H338 1.140       .   S
C334       H339 1.140       .   S
C109       C155 1.251   1_556   S
N108       C109 1.540       .   A
C251       H257 1.140       .   S
C153       H158 1.140       .   S
C154       H159 1.140       .   S
C151       H157 1.140       .   S
C254       H259 1.140       .   S
C253       H258 1.140       .   S
C146       H150 1.140       .   S
N106       C107 1.540       .   A
C107       C165 1.822       .   S
C107       N108 1.540       .   A
C305       C306 1.540       .   A
C306       H310 1.140       .   S
C301       C306 1.540       .   A
C304       C305 1.540       .   A
C303       C304 1.540       .   A
C304       H309 1.140       .   S
C305       C139 1.822   1_556   S
C67        C302 1.822       .   S
C302       C303 1.540       .   A
C301       C302 1.540       .   A
C303       H308 1.140       .   S
C301       H307 1.140       .   S
C152       C153 1.540       .   A
C153       C154 1.540       .   A
C151       C152 1.540       .   A
C21        C152 1.251       .   S
C151       C156 1.540       .   A
C156       H160 1.140       .   S
C155       C156 1.540       .   A
C154       C155 1.540       .   A
C275       C276 1.540       .   A
C276       H280 1.140       .   S
C271       C276 1.540       .   A
C274       C275 1.540       .   A
C273       C274 1.540       .   A
C275       C103 1.854   1_554   S
C272       C273 1.540       .   A
C271       C272 1.540       .   A
C272        C64 1.854       .   S
C273       H278 1.140       .   S
C271       H277 1.140       .   S
C165       C166 1.540       .   A
C164       C165 1.540       .   A
Zn3          O5 1.942       .   S
Zn3          O8 1.922       .   S
C371       H377 1.140       .   S
Zn1          O6 1.922       .   S
Zn1          O5 1.942       .   S
C366       H370 1.140       .   S
Zn4          O5 1.942       .   S
C373       H378 1.140       .   S
C374       H379 1.140       .   S
C214       H219 1.140       .   S
C105       N106 1.540       .   A
C99        N104 1.540       .   A
C103       N104 1.540       .   A
C101       N102 1.540       .   A
N102       C103 1.540       .   A
C99        N100 1.540       .   A
N100       C101 1.540       .   A
C206       H210 1.140       .   S
C211       H217 1.140       .   S
C184       C185 1.540       .   A
C183       C184 1.540       .   A
C185       C186 1.540       .   A
C354       C355 1.540       .   A
C355       C356 1.540       .   A
C355       C133 1.251       .   S
C354       H359 1.140       .   S
C353       C354 1.540       .   A
C356       H360 1.140       .   S
C351       C356 1.540       .   A
C263       H268 1.140       .   S
C264       H269 1.140       .   S
C353       H358 1.140       .   S
C352       C353 1.540       .   A
C351       C352 1.540       .   A
C89        C352 1.251       .   S
C261       H267 1.140       .   S
C256       H260 1.140       .   S
C129       N130 1.540       .   A
C129       N134 1.540       .   A
C123       N124 1.540       .   A
C123       C315 1.428       .   S
C123       N128 1.540       .   A
C121       C195 1.854   1_556   S
N120       C121 1.540       .   A
C121       N122 1.540       .   A
C215       C127 1.854   1_546   S
N126       C127 1.540       .   A
C127       N128 1.540       .   A
C125       C225 1.309   1_565   S
N124       C125 1.540       .   A
C125       N126 1.540       .   A
C145        C93 1.428   1_554   S
C332        C92 1.855       .   S
C91        C365 1.394       .   S
C90        C372 1.428       .   S
C97        C322 1.309   1_556   S
C335        C95 1.855       .   S
C205        C99 1.428       .   S
Zn71        O74 1.942       .   S
Zn71        O76 1.922       .   S
Zn71        O78 1.922       .   S
Zn70        O75 1.922       .   S
Zn70        O74 1.942       .   S
Zn70        O79 1.922       .   S
Zn73        O74 1.942       .   S
Zn72        O74 1.942       .   S
Zn72        O77 1.922       .   S
C224       C225 1.540       .   A
C225       C226 1.540       .   A
C224       H229 1.140       .   S
C223       C224 1.540       .   A
C226       H230 1.140       .   S
C221       C226 1.540       .   A
C221       H227 1.140       .   S
C221       C222 1.540       .   A
C223       H228 1.140       .   S
C222       C223 1.540       .   A
C135       N140 1.540       .   A
C139       N140 1.540       .   A
C324       H329 1.140       .   S
C323       H328 1.140       .   S
C321       H327 1.140       .   S
C316       H320 1.140       .   S
C216       H220 1.140       .   S
C143       H148 1.140       .   S
C141       H147 1.140       .   S
C311       H317 1.140       .   S
C311       C312 1.540       .   A
C311       C316 1.540       .   A
C312       C313 1.540       .   A
C313       H318 1.140       .   S
C313       C314 1.540       .   A
C69        C312 1.428       .   S
C314       C315 1.540       .   A
C315       C316 1.540       .   A
C314       H319 1.140       .   S
C142        C22 1.428       .   S
C192        C23 1.854       .   S
C182        C20 1.309       .   S
O8          C20 1.304       .   A
C166       H170 1.140       .   S
C161       C166 1.540       .   A
C164       H169 1.140       .   S
C163       C164 1.540       .   A
C296       H300 1.140       .   S
C162       C163 1.540       .   A
C161       C162 1.540       .   A
C19        C162 1.822       .   S
C163       H168 1.140       .   S
C161       H167 1.140       .   S
C364       H369 1.140       .   S
C364       C365 1.540       .   A
C363       C364 1.540       .   A
C365       C366 1.540       .   A
C361       C366 1.540       .   A
C361       H367 1.140       .   S
C361       C362 1.540       .   A
C362       C363 1.540       .   A
C363       H368 1.140       .   S
Zn49        O60 1.922       .   S
C186       H190 1.140       .   S
C181       C186 1.540       .   A
C181       H187 1.140       .   S
C181       C182 1.540       .   A
C182       C183 1.540       .   A
Zn47        O63 1.922       .   S
C261       C262 1.540       .   A
C261       C266 1.540       .   A
C262       C263 1.540       .   A
C263       C264 1.540       .   A
C65        C262 1.309       .   S
C264       C265 1.540       .   A
C265       C266 1.540       .   A
C101       C265 1.309       .   S
C266       H270 1.140       .   S
C214       C215 1.540       .   A
C213       C214 1.540       .   A
C215       C216 1.540       .   A
C211       C216 1.540       .   A
O79         C89 1.304       .   A
O78         C87 1.304       .   A
C212       C213 1.540       .   A
C211       C212 1.540       .   A
O75         C87 1.304       .   A
O77         C89 1.304       .   A
O76         C88 1.304       .   A
C131       N132 1.540       .   A
N132       C133 1.540       .   A
N130       C131 1.540       .   A
C135       N136 1.540       .   A
N136       C137 1.540       .   A
C133       N134 1.540       .   A
C137       N138 1.540       .   A
N138       C139 1.540       .   A
O61         C68 1.304       .   A
C68        C292 1.251       .   S
O62         C69 1.304       .   A
O63         C69 1.304       .   A
O60         C67 1.304       .   A
C171       H177 1.140       .   S
C173       H178 1.140       .   S
C174       H179 1.140       .   S
C321       C322 1.540       .   A
C321       C326 1.540       .   A
C322       C323 1.540       .   A
C323       C324 1.540       .   A
C324       C325 1.540       .   A
C325       C326 1.540       .   A
C87        C325 1.309       .   S
O7          C19 1.304       .   A
O6          C18 1.304       .   A
C175        C18 1.394       .   S
O9          C18 1.304       .   A
C172       C135 1.394       .   S
C295       C137 1.251       .   S
C251       C252 1.540       .   A
C251       C256 1.540       .   A
C252       C253 1.540       .   A
C253       C254 1.540       .   A
C254       C255 1.540       .   A
C255       C256 1.540       .   A
Zn2          O9 1.922       .   S
Zn2          O7 1.922       .   S
Zn2          O5 1.942       .   S
C351       H357 1.140       .   S
C171       C172 1.540       .   A
C172       C173 1.540       .   A
C173       C174 1.540       .   A
C174       C175 1.540       .   A
C375       C376 1.540       .   A
C371       C376 1.540       .   A
C374       C375 1.540       .   A
C373       C374 1.540       .   A
C372       C373 1.540       .   A
C371       C372 1.540       .   A
C195       C196 1.540       .   A
C191       C196 1.540       .   A
C194       C195 1.540       .   A
C194       H199 1.140       .   S
C193       C194 1.540       .   A
C193       H198 1.140       .   S
C192       C193 1.540       .   A
C191       C192 1.540       .   A
C191       H197 1.140       .   S
Zn50        O62 1.922       .   S
Zn50        O61 1.922       .   S
C294       C295 1.540       .   A
C293       C294 1.540       .   A
C295       C296 1.540       .   A
C291       C296 1.540       .   A
C291       C292 1.540       .   A
C292       C293 1.540       .   A
C205       C206 1.540       .   A
C201       C206 1.540       .   A
C204       C205 1.540       .   A
C203       C204 1.540       .   A
C202       C203 1.540       .   A
C201       C202 1.540       .   A
C332       C333 1.540       .   A
C333       C334 1.540       .   A
C331       C332 1.540       .   A
C331       C336 1.540       .   A
C335       C336 1.540       .   A
C334       C335 1.540       .   A
C141       C142 1.540       .   A
C141       C146 1.540       .   A
C142       C143 1.540       .   A
C143       C144 1.540       .   A
C144       C145 1.540       .   A
C145       C146 1.540       .   A
